Version 4
SHEET 1 2412 680
WIRE -1040 -736 -1200 -736
WIRE -928 -736 -1040 -736
WIRE -720 -736 -928 -736
WIRE -528 -736 -720 -736
WIRE -528 -704 -528 -736
WIRE -720 -688 -720 -736
WIRE -576 -624 -608 -624
WIRE -528 -528 -528 -608
WIRE -528 -528 -640 -528
WIRE -528 -512 -528 -528
WIRE -1040 -496 -1040 -736
WIRE -320 -496 -432 -496
WIRE -176 -496 -256 -496
WIRE -64 -496 -176 -496
WIRE 48 -496 16 -496
WIRE 112 -496 48 -496
WIRE 304 -496 112 -496
WIRE -720 -480 -720 -624
WIRE -576 -480 -720 -480
WIRE 48 -448 48 -496
WIRE -1200 -432 -1200 -736
WIRE -640 -432 -640 -528
WIRE -640 -432 -720 -432
WIRE -432 -432 -432 -496
WIRE -928 -416 -928 -736
WIRE -720 -416 -720 -432
WIRE 112 -416 112 -496
WIRE 304 -416 304 -496
WIRE -720 -352 -720 -368
WIRE -576 -336 -576 -480
WIRE -528 -336 -528 -352
WIRE -528 -336 -576 -336
WIRE -528 -320 -528 -336
WIRE 112 -320 112 -352
WIRE -176 -304 -176 -496
WIRE 304 -304 304 -336
WIRE -608 -240 -608 -624
WIRE -576 -240 -608 -240
WIRE -256 -224 -528 -224
WIRE -1200 -208 -1200 -352
WIRE -944 -208 -1200 -208
WIRE -928 -208 -928 -352
WIRE -928 -208 -944 -208
WIRE -720 -208 -720 -352
WIRE -720 -208 -928 -208
WIRE -656 -208 -720 -208
WIRE -528 -208 -528 -224
WIRE -432 -208 -432 -352
WIRE -176 -208 -176 -240
WIRE -176 -208 -432 -208
WIRE 112 -208 112 -240
WIRE 112 -208 -176 -208
WIRE 224 -208 112 -208
WIRE 304 -208 304 -224
WIRE 304 -208 224 -208
WIRE -608 -176 -608 -240
WIRE -288 -176 -608 -176
WIRE -1040 -160 -1040 -416
WIRE -480 -160 -1040 -160
WIRE -656 -128 -656 -208
WIRE -528 -128 -656 -128
WIRE 48 -128 48 -368
WIRE 48 -128 -80 -128
WIRE -208 -112 -240 -112
WIRE -128 -112 -208 -112
WIRE -480 -96 -480 -160
WIRE -128 -80 -128 -112
WIRE 48 -80 48 -128
WIRE -288 -48 -288 -176
WIRE -288 -48 -336 -48
WIRE -624 -16 -784 -16
WIRE -784 0 -784 -16
WIRE -256 16 -256 -224
WIRE -256 16 -336 16
WIRE -208 16 -208 -112
WIRE -128 48 -128 0
WIRE -240 80 -240 -112
WIRE -240 80 -336 80
WIRE 48 96 48 0
WIRE 224 96 224 -208
WIRE 224 96 48 96
WIRE -784 112 -784 80
WIRE -624 112 -784 112
WIRE -208 144 -208 80
WIRE -208 144 -336 144
WIRE -128 144 -128 112
WIRE -128 144 -208 144
WIRE -80 144 -80 -128
WIRE -80 144 -128 144
WIRE -784 192 -784 112
WIRE -944 288 -944 -208
WIRE -784 288 -784 256
WIRE -784 288 -944 288
WIRE -480 288 -480 192
WIRE -480 288 -784 288
FLAG -720 -208 0
FLAG -176 -208 0
SYMBOL PowerProducts\\LT1246 -480 48 R0
SYMATTR InstName U1
SYMBOL voltage -1200 -448 R0
SYMATTR InstName V1
SYMATTR Value 40
SYMBOL cap -944 -416 R0
SYMATTR InstName C1
SYMATTR Value 470n
SYMBOL ind2 -512 -336 R180
WINDOW 0 36 80 Left 2
WINDOW 3 36 40 Left 2
SYMATTR InstName L1
SYMATTR Value 140µ
SYMATTR Type ind
SYMBOL ind2 -416 -336 R180
WINDOW 0 36 80 Left 2
WINDOW 3 36 40 Left 2
SYMATTR InstName L2
SYMATTR Value 560µ
SYMATTR Type ind
SYMBOL ind -80 -480 R270
WINDOW 0 32 56 VTop 2
WINDOW 3 5 56 VBottom 2
SYMATTR InstName L3
SYMATTR Value 140µ
SYMBOL schottky -320 -480 R270
WINDOW 0 32 32 VTop 2
WINDOW 3 0 32 VBottom 2
SYMATTR InstName D1
SYMATTR Value MBR20100CT
SYMATTR Description Diode
SYMATTR Type diode
SYMBOL cap 96 -416 R0
SYMATTR InstName C2
SYMATTR Value 200µ
SYMBOL res 288 -432 R0
SYMATTR InstName R1
SYMATTR Value 0.03
SYMBOL nmos -576 -320 R0
SYMATTR InstName M1
SYMATTR Value BSB015N04NX3
SYMBOL nmos -576 -704 R0
SYMATTR InstName M2
SYMATTR Value BSB015N04NX3
SYMBOL schottky -160 -240 R180
WINDOW 0 24 64 Left 2
WINDOW 3 24 0 Left 2
SYMATTR InstName D5
SYMATTR Value MBR20100CT
SYMATTR Description Diode
SYMATTR Type diode
SYMBOL schottky -704 -624 R180
WINDOW 0 24 64 Left 2
WINDOW 3 24 0 Left 2
SYMATTR InstName D2
SYMATTR Value MBR20100CT
SYMATTR Description Diode
SYMATTR Type diode
SYMBOL schottky -704 -352 R180
WINDOW 0 24 64 Left 2
WINDOW 3 24 0 Left 2
SYMATTR InstName D3
SYMATTR Value MBR20100CT
SYMATTR Description Diode
SYMATTR Type diode
SYMBOL res -800 -16 R0
SYMATTR InstName R2
SYMATTR Value 172k
SYMBOL cap -800 192 R0
SYMATTR InstName C3
SYMATTR Value 100p
SYMBOL res 32 -464 R0
SYMATTR InstName R3
SYMATTR Value 100k
SYMBOL res 32 -96 R0
SYMATTR InstName R4
SYMATTR Value 3k
SYMBOL res -544 -224 R0
SYMATTR InstName R5
SYMATTR Value 0.1
SYMBOL cap -224 16 R0
SYMATTR InstName C4
SYMATTR Value 100p
SYMBOL cap -144 48 R0
SYMATTR InstName C5
SYMATTR Value 4.7n
SYMBOL res -144 -96 R0
SYMATTR InstName R6
SYMATTR Value 300k
SYMBOL ind -544 -528 R0
SYMATTR InstName L4
SYMATTR Value 1µ
SYMBOL res 96 -336 R0
SYMATTR InstName R7
SYMATTR Value 0.008
SYMBOL Misc\\battery 304 -320 R0
SYMATTR InstName V2
SYMATTR Value 8
SYMBOL res -1056 -512 R0
SYMATTR InstName R15
SYMATTR Value 10
TEXT -1234 330 Left 2 !.tran 0 0.1 0 1
TEXT 352 -152 Left 2 !K L1 L2 1
