Version 4
SHEET 1 2244 1472
WIRE 96 -80 64 -80
WIRE 176 -80 160 -80
WIRE -608 48 -720 48
WIRE -208 48 -608 48
WIRE -96 48 -128 48
WIRE -64 48 -96 48
WIRE -16 48 -16 -80
WIRE -16 48 -32 48
WIRE 80 48 -16 48
WIRE 176 48 176 -80
WIRE 176 48 144 48
WIRE 272 48 176 48
WIRE 288 48 272 48
WIRE 416 48 368 48
WIRE 528 48 528 32
WIRE 528 48 416 48
WIRE 656 48 528 48
WIRE 912 48 656 48
WIRE 992 48 912 48
WIRE -64 64 -64 48
WIRE -32 64 -32 48
WIRE 528 64 528 48
WIRE -816 80 -816 64
WIRE -720 80 -720 48
WIRE -608 80 -608 48
WIRE 176 80 176 48
WIRE 272 80 272 48
WIRE 416 80 416 48
WIRE 656 80 656 48
WIRE 912 80 912 48
WIRE 992 80 992 48
WIRE -96 128 -96 48
WIRE -96 128 -240 128
WIRE -720 176 -720 160
WIRE -608 176 -608 144
WIRE -608 176 -720 176
WIRE -32 176 -32 144
WIRE 80 176 -32 176
WIRE 176 176 176 144
WIRE 176 176 160 176
WIRE 224 176 176 176
WIRE 416 176 416 144
WIRE 416 176 224 176
WIRE 528 176 528 144
WIRE 528 176 416 176
WIRE -816 192 -816 160
WIRE -720 192 -720 176
WIRE 224 192 224 176
WIRE 176 224 176 176
WIRE 272 256 272 160
WIRE 336 256 272 256
WIRE 992 256 992 160
WIRE 1024 256 992 256
WIRE 1296 256 1216 256
WIRE -240 272 -368 272
WIRE 176 304 176 288
WIRE 336 304 336 256
WIRE 336 304 176 304
WIRE 912 352 912 160
WIRE 1024 352 912 352
WIRE 1264 352 1216 352
WIRE 1296 352 1264 352
WIRE 1424 352 1376 352
WIRE -64 368 -64 144
WIRE 1264 384 1264 352
WIRE 656 400 656 160
WIRE 752 400 656 400
WIRE 912 400 912 352
WIRE 912 400 816 400
WIRE -1120 432 -1248 432
WIRE -1008 432 -1120 432
WIRE -880 432 -1008 432
WIRE -256 448 -272 448
WIRE -144 448 -176 448
WIRE -112 448 -144 448
WIRE -880 480 -880 432
WIRE -848 480 -880 480
WIRE -144 480 -144 448
WIRE 1264 496 1264 464
WIRE -1120 544 -1120 496
WIRE -1120 544 -1136 544
WIRE -1008 544 -1008 512
WIRE -1008 544 -1120 544
WIRE -848 544 -1008 544
WIRE 912 560 912 400
WIRE -144 576 -144 560
WIRE 656 592 656 400
WIRE 880 592 656 592
WIRE -848 608 -1024 608
WIRE -368 624 -368 272
WIRE -64 624 -64 464
WIRE -64 624 -368 624
WIRE 0 624 -64 624
WIRE 144 624 80 624
WIRE 160 624 144 624
WIRE 656 624 656 592
WIRE -64 640 -64 624
WIRE 144 656 144 624
WIRE -1024 672 -1024 608
WIRE -848 672 -944 672
WIRE -944 688 -944 672
WIRE -64 736 -64 720
WIRE 144 736 144 720
WIRE 656 736 656 704
WIRE 912 736 912 624
WIRE -944 784 -944 752
FLAG -528 640 Isense
FLAG -1024 608 Reference
FLAG -528 512 Output
FLAG -144 576 0
FLAG 1264 496 0
FLAG 1424 352 Feedback
FLAG -720 192 0
FLAG 224 192 0
FLAG 528 32 Vout
FLAG -64 736 0
FLAG 144 736 0
FLAG 160 624 Isense
FLAG -272 448 Output
FLAG -944 784 0
FLAG -816 64 Vcc
FLAG -816 192 0
FLAG -688 416 Vcc
FLAG -688 736 0
FLAG -1248 432 Feedback
FLAG 1296 256 Reference
FLAG 656 736 0
FLAG 912 736 0
FLAG -1088 608 0
SYMBOL voltage -720 64 R0
WINDOW 123 0 0 Left 0
WINDOW 39 0 0 Left 0
SYMATTR InstName Vin
SYMATTR Value 40
SYMBOL ind2 -16 160 R180
WINDOW 0 36 80 Left 2
WINDOW 3 -21 39 Left 2
SYMATTR InstName L4
SYMATTR Value 2.25
SYMATTR Type ind
SYMBOL ind2 -48 160 R180
WINDOW 0 36 80 Left 2
WINDOW 3 36 40 Left 2
SYMATTR InstName L3
SYMATTR Value 1
SYMATTR Type ind
SYMBOL res -160 432 R90
WINDOW 0 0 56 VBottom 2
WINDOW 3 32 56 VTop 2
SYMATTR InstName R4
SYMATTR Value 8.87
SYMBOL res 96 608 R90
WINDOW 0 0 56 VBottom 2
WINDOW 3 32 56 VTop 2
SYMATTR InstName R5
SYMATTR Value 1k
SYMBOL cap 128 656 R0
SYMATTR InstName C2
SYMATTR Value 470p
SYMBOL cap -960 688 R0
SYMATTR InstName C4
SYMATTR Value 1n
SYMBOL Optos\\PC817A 1120 304 R0
SYMATTR InstName U2
SYMBOL res 672 64 M0
SYMATTR InstName R8
SYMATTR Value 38k
SYMBOL res 672 608 M0
SYMATTR InstName R9
SYMATTR Value 10k
SYMBOL res 928 64 M0
SYMATTR InstName R10
SYMATTR Value 1k
SYMBOL res 1008 64 M0
WINDOW 0 -50 36 Left 2
WINDOW 3 -50 74 Left 2
SYMATTR InstName R11
SYMATTR Value 1.5k
SYMBOL res 1280 368 M0
SYMATTR InstName R13
SYMATTR Value 0.6k
SYMBOL res 1280 336 M90
WINDOW 0 0 56 VBottom 2
WINDOW 3 32 56 VTop 2
SYMATTR InstName R14
SYMATTR Value 5k
SYMBOL ind -224 64 R270
WINDOW 0 32 56 VTop 2
WINDOW 3 5 56 VBottom 2
SYMATTR InstName L1
SYMATTR Value 0.215µ
SYMBOL ind 272 64 R270
WINDOW 0 32 56 VTop 2
WINDOW 3 5 56 VBottom 2
SYMATTR InstName L2
SYMATTR Value 100µ
SYMBOL polcap 400 80 R0
WINDOW 3 24 56 Left 2
SYMATTR Value 470µ
SYMATTR InstName C9
SYMATTR Description Capacitor
SYMATTR Type cap
SYMATTR SpiceLine V=35 Irms=1.06 Rser=0.0442 Lser=7.087n
SYMBOL ind 64 192 R270
WINDOW 0 32 56 VTop 2
WINDOW 3 5 56 VBottom 2
SYMATTR InstName L5
SYMATTR Value 0.215µ
SYMBOL schottky 80 64 R270
WINDOW 0 32 32 VTop 2
WINDOW 3 0 32 VBottom 2
SYMATTR InstName D2
SYMATTR Value MBR20100CT
SYMATTR Description Diode
SYMATTR Type diode
SYMBOL cap -624 80 R0
SYMATTR InstName C10
SYMATTR Value 470µ
SYMBOL cap 752 384 M90
WINDOW 0 0 32 VBottom 2
WINDOW 3 32 32 VTop 2
SYMATTR InstName C11
SYMATTR Value 2.3n
SYMBOL nmos -112 368 R0
SYMATTR InstName M2
SYMATTR Value IRFR120Z
SYMBOL res 512 48 R0
SYMATTR InstName R7
SYMATTR Value 2.4
SYMBOL res -80 624 R0
SYMATTR InstName R18
SYMATTR Value 0.035
SYMBOL res -160 464 R0
SYMATTR InstName R19
SYMATTR Value 10k
SYMBOL voltage -816 64 R0
WINDOW 123 0 0 Left 0
WINDOW 39 0 0 Left 0
SYMATTR InstName V1
SYMATTR Value 15
SYMBOL PowerProducts\\LT1245 -688 576 R0
SYMATTR InstName U3
SYMBOL res -928 656 R90
WINDOW 0 0 56 VBottom 2
WINDOW 3 32 56 VTop 2
SYMATTR InstName R3
SYMATTR Value 17.2k
SYMBOL cap -1024 592 R90
WINDOW 0 0 32 VBottom 2
WINDOW 3 32 32 VTop 2
SYMATTR InstName C13
SYMATTR Value 100n
SYMBOL res -1024 416 R0
SYMATTR InstName R15
SYMATTR Value 10k
SYMBOL cap -1136 432 R0
SYMATTR InstName C14
SYMATTR Value 1n
SYMBOL tl431 896 560 R0
SYMATTR InstName U1
SYMBOL diode 192 144 R180
WINDOW 0 24 64 Left 2
WINDOW 3 24 0 Left 2
SYMATTR InstName D1
SYMATTR Value MBR20100CT
SYMBOL ind2 -256 112 R0
SYMATTR InstName L6
SYMATTR Value 1
SYMATTR Type ind
SYMBOL diode -224 272 R180
WINDOW 0 24 64 Left 2
WINDOW 3 24 0 Left 2
SYMATTR InstName D4
SYMATTR Value MBR20100CT
SYMBOL res 80 -96 R90
WINDOW 0 0 56 VBottom 2
WINDOW 3 32 56 VTop 2
SYMATTR InstName R1
SYMATTR Value 22
SYMBOL cap 160 -96 R90
WINDOW 0 0 32 VBottom 2
WINDOW 3 32 32 VTop 2
SYMATTR InstName C1
SYMATTR Value 2.2n
SYMBOL res 256 64 R0
SYMATTR InstName R2
SYMATTR Value 22
SYMBOL cap 160 224 R0
SYMATTR InstName C3
SYMATTR Value 2.2n
TEXT 1056 968 Left 2 !.tran 0.008
TEXT -96 32 Left 2 !K L3 L4 L6 1
TEXT 1232 968 Left 2 !.include tl431.lib
